# This file is shared by all ib_credits simulations.
# Lines beginning with `#' are comments

[General]

record-eventlog = false
sim-time-limit = 0.04s # max number of simulation seconds to run
network = ib_model.examples.evaluation_fattree64.fattree_64_network

# this line is for Cmdenv
print-undisposed = false
debug-on-errors = true

# cmdenv-express-mode = false # control msg printing
# cmdenv-message-trace= true  # info on every msg

# cmdenv-runs-to-execute = 1
include ../../modules.ini
include ../../pcie_8x_g2.ini
include fat_tree_64_srcLid.ini

**.startStatCol = 100us


##################################################################
# APP
##################################################################

# DESTINATION

# possible values are: param | seq_loop | seq_once seq_rand
**.dstMode = "param" # send by the given dstLid parameter

# Not relevant for dstLid mode but still required
**.app.dstSeqVecFile = ""
**.app.dstSeqVecIdx = 0

# server Id starts from 1

# Msg Length
**.msgLenMode = "param"
**.msgMtuLen = 2048B
**.servers[*].app.msgNum = 1
#**.servers[0].app.dstLid = 5
#**.servers[1].app.dstLid = 5
#**.servers[6].app.dstLid = 5
#**.servers[7].app.dstLid = 5
#**.servers[8].app.dstLid = 5
#**.servers[11].app.dstLid = 5
#**.servers[12].app.dstLid = 5
#**.servers[13].app.dstLid = 5



**.servers[0].app.dstLid = 5
**.servers[1].app.dstLid = 17
**.servers[9].app.dstLid = 21
**.servers[5].app.dstLid = 25
**.servers[12].app.dstLid = 29



#**.servers[*].app.msgLength = 4194304*20B # 4M messages

# not relevant for param mode but still required
**.msgLenSet = "4096 4096 4096"
**.msgLenProb = "1 1 1 1"  


#**.servers[*].**.startTime = 0

**.servers[5].app.msg2msgGap = 4000ns
**.servers[9].app.msg2msgGap = 4000ns
**.servers[12].app.msg2msgGap = 4000ns


**.servers[9].**.startTime = 0.005
**.servers[5].**.startTime = 0.005
**.servers[12].**.startTime = 0.005
**.servers[9].**.endTime = 0.006
**.servers[5].**.endTime = 0.006
**.servers[12].**.endTime = 0.006
#**.servers[4].**.endTime = 0
#**.servers[9].**.endTime = 0
#**.servers[12].**.endTime = 0

**.servers[5].app.msgLength = 4096B # 4M messages
**.servers[9].app.msgLength = 4096B # 4M messages
**.servers[12].app.msgLength = 4096B # 4M messages

# Others:
**.msgSQ = 0

##################################################################
# GENERATOR     
##################################################################
#**.maxContPkts = 3
**.maxContPkts = 10
**.popDlyPerByte = 0.25ns
**.genDlyPerByte = 0.25ns


**.maxQueuedPerVL = 10
**.flit2FlitGap = 0.001ns
**.pkt2PktGap = 0.001ns
**.servers[0].**.on_throughput_obuf = 1
**.servers[1].**.on_throughput_obuf = 1
**.servers[5].**.on_throughput_obuf = 1
**.servers[9].**.on_throughput_obuf = 1
**.servers[1].**.on_throughput_gen = 1
#**.servers[6].**.on_throughput_obuf = 1
#**.servers[7].**.on_throughput_obuf = 1
#**.servers[8].**.on_throughput_obuf = 1
#**.servers[11].**.on_throughput_obuf = 1
**.servers[12].**.on_throughput_obuf = 1
#**.servers[13].**.on_throughput_obuf = 1
**.timeStep_us = 50us
**.servers[0].**.on_cc = 1
**.servers[1].**.on_cc = 1
**.servers[4].**.on_cc = 1
**.servers[16].**.on_cc = 1
#**.servers[0].**.on_newcc = 1
#**.servers[1].**.on_newcc = 1
#**.servers[4].**.on_newcc = 1
#**.servers[16].**.on_newcc = 1
#**.servers[*].**.on_cc = 1
**.CCT_Timer = 25us
**.vlarb.markrate = 3


##################################################################
# IBUF  
##################################################################
# speedup
**ibuf.maxBeingSent = 1



**ibuf.totalBufferSize = 1000 # in credits
**servers[*]**.ibuf.maxStatic* = 32
**.**switches[*].subport[*].ibuf.maxStatic* = 32
**.**switches[*].**.obuf.size = 4      # in flits
**.**servers[*].obuf.size = 5      # in flits

##################################################################
# SWITCH  
##################################################################
# generated file holding port groups and FDBs vector indexes
**.**switches[*]**.fdbsVecFile = "fat_tree_64.fdbs"
include fat_tree_64.fdbs.ini

**.pktFwdType = "Pktfwd"


**.**switches[*].**.vlarb.coreFreq = 1200MHz
**.**servers[*].vlarb.coreFreq = 1000MHz
**.**switches[*].**.vlarb.busWidth = 24B  # Baz can push 72 bytes out of ibuf into 3 obufs
**.**servers[*].vlarb.busWidth = 16B  # assume an HCA is supporting QDR with 250MHz

#####################################
# RUNS
#####################################
[Config One]
description = "Simple Run"
repeat = 2